
  -OEChem-08212118183D

150156  0     0  0  0  0  0  0999 V2000
    5.0660    1.2190   -1.6430 C   0  0  0  0  0  0  0  0  0  0  0  0
    5.3190   -1.2130   -0.2670 C   0  0  0  0  0  0  0  0  0  0  0  0
    4.7980    0.0330   -2.3500 C   0  0  0  0  0  0  0  0  0  0  0  0
    5.1990    1.1870   -0.2310 C   0  0  0  0  0  0  0  0  0  0  0  0
    5.3200   -0.0260    0.4890 C   0  0  0  0  0  0  0  0  0  0  0  0
    4.9410   -1.1810   -1.6340 C   0  0  0  0  0  0  0  0  0  0  0  0
    5.2800    2.1230    0.3200 H   0  0  0  0  0  0  0  0  0  0  0  0
    4.8210   -2.1160   -2.1780 H   0  0  0  0  0  0  0  0  0  0  0  0
    4.5300    0.0030   -3.8580 C   0  0  0  0  0  0  0  0  0  0  0  0
    5.0730   -0.8540   -4.2790 H   0  0  0  0  0  0  0  0  0  0  0  0
    5.0320    0.8600   -4.3280 H   0  0  0  0  0  0  0  0  0  0  0  0
    5.2660    2.3770   -2.3810 O   0  0  0  0  0  0  0  0  0  0  0  0
    5.7690   -2.3700    0.3520 O   0  0  0  0  0  0  0  0  0  0  0  0
    6.3400    3.2150   -1.8750 C   0  0  0  0  0  0  0  0  0  0  0  0
    7.1110    2.6150   -1.3720 H   0  0  0  0  0  0  0  0  0  0  0  0
    5.9130    3.9230   -1.1550 H   0  0  0  0  0  0  0  0  0  0  0  0
    6.5930   -3.2090   -0.5040 C   0  0  0  0  0  0  0  0  0  0  0  0
    5.9370   -3.9160   -1.0240 H   0  0  0  0  0  0  0  0  0  0  0  0
    7.1340   -2.6090   -1.2480 H   0  0  0  0  0  0  0  0  0  0  0  0
    7.0640    4.0040   -3.0010 C   0  0  0  0  0  0  0  0  0  0  0  0
    7.6700   -3.9980    0.2910 C   0  0  0  0  0  0  0  0  0  0  0  0
    7.9580    3.3820   -3.6590 O   0  0  0  0  0  0  0  0  0  0  0  0
    8.7390   -3.3760    0.5880 O   0  0  0  0  0  0  0  0  0  0  0  0
    6.8010    5.2470   -3.0850 O   0  5  0  0  0  0  0  0  0  0  0  0
    7.4540   -5.2410    0.4630 O   0  5  0  0  0  0  0  0  0  0  0  0
    1.1100    1.2190   -5.2090 C   0  0  0  0  0  0  0  0  0  0  0  0
    2.4280   -1.2130   -4.7400 C   0  0  0  0  0  0  0  0  0  0  0  0
    0.3640    0.0330   -5.3300 C   0  0  0  0  0  0  0  0  0  0  0  0
    2.4000    1.1870   -4.6180 C   0  0  0  0  0  0  0  0  0  0  0  0
    3.0830   -0.0270   -4.3620 C   0  0  0  0  0  0  0  0  0  0  0  0
    1.0550   -1.1810   -5.0960 C   0  0  0  0  0  0  0  0  0  0  0  0
    2.9180    2.1220   -4.4130 H   0  0  0  0  0  0  0  0  0  0  0  0
    0.5240   -2.1160   -5.2640 H   0  0  0  0  0  0  0  0  0  0  0  0
   -1.0760    0.0030   -5.8520 C   0  0  0  0  0  0  0  0  0  0  0  0
   -1.1690   -0.8540   -6.5330 H   0  0  0  0  0  0  0  0  0  0  0  0
   -1.2320    0.8600   -6.5210 H   0  0  0  0  0  0  0  0  0  0  0  0
    0.5710    2.3770   -5.7510 O   0  0  0  0  0  0  0  0  0  0  0  0
    3.1890   -2.3710   -4.8200 O   0  0  0  0  0  0  0  0  0  0  0  0
    1.5470    3.2150   -6.4280 C   0  0  0  0  0  0  0  0  0  0  0  0
    2.3670    2.6150   -6.8440 H   0  0  0  0  0  0  0  0  0  0  0  0
    1.9560    3.9220   -5.6990 H   0  0  0  0  0  0  0  0  0  0  0  0
    2.8600   -3.2090   -5.9610 C   0  0  0  0  0  0  0  0  0  0  0  0
    2.0810   -3.9160   -5.6540 H   0  0  0  0  0  0  0  0  0  0  0  0
    2.4860   -2.6090   -6.8020 H   0  0  0  0  0  0  0  0  0  0  0  0
    0.9340    4.0040   -7.6180 C   0  0  0  0  0  0  0  0  0  0  0  0
    4.0860   -3.9990   -6.4970 C   0  0  0  0  0  0  0  0  0  0  0  0
    0.7290    5.2470   -7.4330 O   0  5  0  0  0  0  0  0  0  0  0  0
    4.1270   -5.2410   -6.2230 O   0  5  0  0  0  0  0  0  0  0  0  0
    0.8110    3.3820   -8.7210 O   0  0  0  0  0  0  0  0  0  0  0  0
    4.8780   -3.3760   -7.2740 O   0  0  0  0  0  0  0  0  0  0  0  0
   -3.9560    1.2200   -3.5660 C   0  0  0  0  0  0  0  0  0  0  0  0
   -2.8910   -1.2130   -4.4730 C   0  0  0  0  0  0  0  0  0  0  0  0
   -4.4340    0.0330   -2.9800 C   0  0  0  0  0  0  0  0  0  0  0  0
   -2.7990    1.1880   -4.3870 C   0  0  0  0  0  0  0  0  0  0  0  0
   -2.2360   -0.0260   -4.8510 C   0  0  0  0  0  0  0  0  0  0  0  0
   -3.8860   -1.1810   -3.4620 C   0  0  0  0  0  0  0  0  0  0  0  0
   -2.3630    2.1230   -4.7330 H   0  0  0  0  0  0  0  0  0  0  0  0
   -4.2970   -2.1160   -3.0860 H   0  0  0  0  0  0  0  0  0  0  0  0
   -5.6060    0.0030   -1.9940 C   0  0  0  0  0  0  0  0  0  0  0  0
   -6.2420   -0.8530   -2.2540 H   0  0  0  0  0  0  0  0  0  0  0  0
   -6.2640    0.8600   -2.1940 H   0  0  0  0  0  0  0  0  0  0  0  0
   -4.6950    2.3770   -3.3700 O   0  0  0  0  0  0  0  0  0  0  0  0
   -2.5800   -2.3700   -5.1720 O   0  0  0  0  0  0  0  0  0  0  0  0
   -4.7940    3.2150   -4.5530 C   0  0  0  0  0  0  0  0  0  0  0  0
   -4.7440    2.6150   -5.4720 H   0  0  0  0  0  0  0  0  0  0  0  0
   -3.9570    3.9230   -4.5430 H   0  0  0  0  0  0  0  0  0  0  0  0
   -3.7330   -3.2090   -5.4570 C   0  0  0  0  0  0  0  0  0  0  0  0
   -3.8560   -3.9160   -4.6290 H   0  0  0  0  0  0  0  0  0  0  0  0
   -4.6480   -2.6090   -5.5540 H   0  0  0  0  0  0  0  0  0  0  0  0
   -6.1300    4.0050   -4.6170 C   0  0  0  0  0  0  0  0  0  0  0  0
   -3.5840   -3.9980   -6.7870 C   0  0  0  0  0  0  0  0  0  0  0  0
   -6.0720    5.2480   -4.3470 O   0  5  0  0  0  0  0  0  0  0  0  0
   -3.3260   -5.2410   -6.6870 O   0  5  0  0  0  0  0  0  0  0  0  0
   -7.1470    3.3830   -5.0630 O   0  0  0  0  0  0  0  0  0  0  0  0
   -3.8610   -3.3760   -7.8620 O   0  0  0  0  0  0  0  0  0  0  0  0
   -5.0660    1.2190    1.6430 C   0  0  0  0  0  0  0  0  0  0  0  0
   -5.3190   -1.2130    0.2670 C   0  0  0  0  0  0  0  0  0  0  0  0
   -4.7980    0.0330    2.3500 C   0  0  0  0  0  0  0  0  0  0  0  0
   -5.1990    1.1870    0.2310 C   0  0  0  0  0  0  0  0  0  0  0  0
   -5.3200   -0.0260   -0.4890 C   0  0  0  0  0  0  0  0  0  0  0  0
   -4.9410   -1.1810    1.6340 C   0  0  0  0  0  0  0  0  0  0  0  0
   -5.2800    2.1230   -0.3200 H   0  0  0  0  0  0  0  0  0  0  0  0
   -4.8210   -2.1160    2.1780 H   0  0  0  0  0  0  0  0  0  0  0  0
   -4.5300    0.0030    3.8580 C   0  0  0  0  0  0  0  0  0  0  0  0
   -5.0730   -0.8540    4.2790 H   0  0  0  0  0  0  0  0  0  0  0  0
   -5.0320    0.8600    4.3280 H   0  0  0  0  0  0  0  0  0  0  0  0
   -5.2660    2.3770    2.3810 O   0  0  0  0  0  0  0  0  0  0  0  0
   -5.7690   -2.3700   -0.3520 O   0  0  0  0  0  0  0  0  0  0  0  0
   -6.3400    3.2150    1.8750 C   0  0  0  0  0  0  0  0  0  0  0  0
   -7.1110    2.6150    1.3720 H   0  0  0  0  0  0  0  0  0  0  0  0
   -5.9130    3.9230    1.1550 H   0  0  0  0  0  0  0  0  0  0  0  0
   -6.5930   -3.2090    0.5040 C   0  0  0  0  0  0  0  0  0  0  0  0
   -5.9370   -3.9160    1.0240 H   0  0  0  0  0  0  0  0  0  0  0  0
   -7.1340   -2.6090    1.2480 H   0  0  0  0  0  0  0  0  0  0  0  0
   -7.0640    4.0040    3.0010 C   0  0  0  0  0  0  0  0  0  0  0  0
   -7.6700   -3.9980   -0.2910 C   0  0  0  0  0  0  0  0  0  0  0  0
   -6.8010    5.2470    3.0850 O   0  5  0  0  0  0  0  0  0  0  0  0
   -7.4540   -5.2410   -0.4630 O   0  5  0  0  0  0  0  0  0  0  0  0
   -7.9580    3.3820    3.6590 O   0  0  0  0  0  0  0  0  0  0  0  0
   -8.7390   -3.3760   -0.5880 O   0  0  0  0  0  0  0  0  0  0  0  0
   -1.1100    1.2190    5.2090 C   0  0  0  0  0  0  0  0  0  0  0  0
   -2.4280   -1.2130    4.7400 C   0  0  0  0  0  0  0  0  0  0  0  0
   -0.3640    0.0330    5.3300 C   0  0  0  0  0  0  0  0  0  0  0  0
   -2.4000    1.1870    4.6180 C   0  0  0  0  0  0  0  0  0  0  0  0
   -3.0830   -0.0270    4.3620 C   0  0  0  0  0  0  0  0  0  0  0  0
   -1.0550   -1.1810    5.0960 C   0  0  0  0  0  0  0  0  0  0  0  0
   -2.9180    2.1220    4.4130 H   0  0  0  0  0  0  0  0  0  0  0  0
   -0.5240   -2.1160    5.2640 H   0  0  0  0  0  0  0  0  0  0  0  0
    1.0760    0.0030    5.8520 C   0  0  0  0  0  0  0  0  0  0  0  0
    1.1690   -0.8540    6.5330 H   0  0  0  0  0  0  0  0  0  0  0  0
    1.2320    0.8600    6.5210 H   0  0  0  0  0  0  0  0  0  0  0  0
   -0.5710    2.3770    5.7510 O   0  0  0  0  0  0  0  0  0  0  0  0
   -3.1890   -2.3710    4.8200 O   0  0  0  0  0  0  0  0  0  0  0  0
   -1.5470    3.2150    6.4280 C   0  0  0  0  0  0  0  0  0  0  0  0
   -2.3670    2.6150    6.8440 H   0  0  0  0  0  0  0  0  0  0  0  0
   -1.9560    3.9220    5.6990 H   0  0  0  0  0  0  0  0  0  0  0  0
   -2.8600   -3.2090    5.9610 C   0  0  0  0  0  0  0  0  0  0  0  0
   -2.0810   -3.9160    5.6540 H   0  0  0  0  0  0  0  0  0  0  0  0
   -2.4860   -2.6090    6.8020 H   0  0  0  0  0  0  0  0  0  0  0  0
   -0.9340    4.0040    7.6180 C   0  0  0  0  0  0  0  0  0  0  0  0
   -4.0860   -3.9990    6.4970 C   0  0  0  0  0  0  0  0  0  0  0  0
   -0.7290    5.2470    7.4330 O   0  5  0  0  0  0  0  0  0  0  0  0
   -4.1270   -5.2410    6.2230 O   0  5  0  0  0  0  0  0  0  0  0  0
   -0.8110    3.3820    8.7210 O   0  0  0  0  0  0  0  0  0  0  0  0
   -4.8780   -3.3760    7.2740 O   0  0  0  0  0  0  0  0  0  0  0  0
    3.9560    1.2200    3.5660 C   0  0  0  0  0  0  0  0  0  0  0  0
    2.8910   -1.2130    4.4730 C   0  0  0  0  0  0  0  0  0  0  0  0
    4.4340    0.0330    2.9800 C   0  0  0  0  0  0  0  0  0  0  0  0
    2.7990    1.1880    4.3870 C   0  0  0  0  0  0  0  0  0  0  0  0
    2.2360   -0.0260    4.8510 C   0  0  0  0  0  0  0  0  0  0  0  0
    3.8860   -1.1810    3.4620 C   0  0  0  0  0  0  0  0  0  0  0  0
    2.3630    2.1230    4.7330 H   0  0  0  0  0  0  0  0  0  0  0  0
    4.2970   -2.1160    3.0860 H   0  0  0  0  0  0  0  0  0  0  0  0
    5.6060    0.0030    1.9940 C   0  0  0  0  0  0  0  0  0  0  0  0
    6.2420   -0.8530    2.2540 H   0  0  0  0  0  0  0  0  0  0  0  0
    6.2640    0.8600    2.1940 H   0  0  0  0  0  0  0  0  0  0  0  0
    4.6950    2.3770    3.3700 O   0  0  0  0  0  0  0  0  0  0  0  0
    2.5800   -2.3700    5.1720 O   0  0  0  0  0  0  0  0  0  0  0  0
    4.7940    3.2150    4.5530 C   0  0  0  0  0  0  0  0  0  0  0  0
    4.7440    2.6150    5.4720 H   0  0  0  0  0  0  0  0  0  0  0  0
    3.9570    3.9230    4.5430 H   0  0  0  0  0  0  0  0  0  0  0  0
    3.7330   -3.2090    5.4570 C   0  0  0  0  0  0  0  0  0  0  0  0
    3.8560   -3.9160    4.6290 H   0  0  0  0  0  0  0  0  0  0  0  0
    4.6480   -2.6090    5.5540 H   0  0  0  0  0  0  0  0  0  0  0  0
    6.1300    4.0050    4.6170 C   0  0  0  0  0  0  0  0  0  0  0  0
    3.5840   -3.9980    6.7870 C   0  0  0  0  0  0  0  0  0  0  0  0
    6.0720    5.2480    4.3470 O   0  5  0  0  0  0  0  0  0  0  0  0
    3.3260   -5.2410    6.6870 O   0  5  0  0  0  0  0  0  0  0  0  0
    7.1470    3.3830    5.0630 O   0  0  0  0  0  0  0  0  0  0  0  0
    3.8610   -3.3760    7.8620 O   0  0  0  0  0  0  0  0  0  0  0  0
  1  4  2  0  0  0  0
  1  3  1  0  0  0  0
  1 12  1  0  0  0  0
  2  5  2  0  0  0  0
  2  6  1  0  0  0  0
  2 13  1  0  0  0  0
  3  6  2  0  0  0  0
  3  9  1  0  0  0  0
  4  5  1  0  0  0  0
  4  7  1  0  0  0  0
  5134  1  0  0  0  0
  6  8  1  0  0  0  0
  9 10  1  0  0  0  0
  9 11  1  0  0  0  0
  9 30  1  0  0  0  0
 12 14  1  0  0  0  0
 13 17  1  0  0  0  0
 14 15  1  0  0  0  0
 14 16  1  0  0  0  0
 14 20  1  0  0  0  0
 17 18  1  0  0  0  0
 17 19  1  0  0  0  0
 17 21  1  0  0  0  0
 20 22  2  0  0  0  0
 20 24  1  0  0  0  0
 21 23  2  0  0  0  0
 21 25  1  0  0  0  0
 26 29  2  0  0  0  0
 26 28  1  0  0  0  0
 26 37  1  0  0  0  0
 27 30  2  0  0  0  0
 27 31  1  0  0  0  0
 27 38  1  0  0  0  0
 28 31  2  0  0  0  0
 28 34  1  0  0  0  0
 29 30  1  0  0  0  0
 29 32  1  0  0  0  0
 31 33  1  0  0  0  0
 34 35  1  0  0  0  0
 34 36  1  0  0  0  0
 34 55  1  0  0  0  0
 37 39  1  0  0  0  0
 38 42  1  0  0  0  0
 39 40  1  0  0  0  0
 39 41  1  0  0  0  0
 39 45  1  0  0  0  0
 42 43  1  0  0  0  0
 42 44  1  0  0  0  0
 42 46  1  0  0  0  0
 45 47  1  0  0  0  0
 45 49  2  0  0  0  0
 46 48  1  0  0  0  0
 46 50  2  0  0  0  0
 51 54  2  0  0  0  0
 51 53  1  0  0  0  0
 51 62  1  0  0  0  0
 52 55  2  0  0  0  0
 52 56  1  0  0  0  0
 52 63  1  0  0  0  0
 53 56  2  0  0  0  0
 53 59  1  0  0  0  0
 54 57  1  0  0  0  0
 54 55  1  0  0  0  0
 56 58  1  0  0  0  0
 59 60  1  0  0  0  0
 59 61  1  0  0  0  0
 59 80  1  0  0  0  0
 62 64  1  0  0  0  0
 63 67  1  0  0  0  0
 64 65  1  0  0  0  0
 64 66  1  0  0  0  0
 64 70  1  0  0  0  0
 67 68  1  0  0  0  0
 67 69  1  0  0  0  0
 67 71  1  0  0  0  0
 70 72  1  0  0  0  0
 70 74  2  0  0  0  0
 71 73  1  0  0  0  0
 71 75  2  0  0  0  0
 76 79  2  0  0  0  0
 76 78  1  0  0  0  0
 76 87  1  0  0  0  0
 77 80  2  0  0  0  0
 77 81  1  0  0  0  0
 77 88  1  0  0  0  0
 78 81  2  0  0  0  0
 78 84  1  0  0  0  0
 79 80  1  0  0  0  0
 79 82  1  0  0  0  0
 81 83  1  0  0  0  0
 84 85  1  0  0  0  0
 84 86  1  0  0  0  0
 84105  1  0  0  0  0
 87 89  1  0  0  0  0
 88 92  1  0  0  0  0
 89 90  1  0  0  0  0
 89 91  1  0  0  0  0
 89 95  1  0  0  0  0
 92 93  1  0  0  0  0
 92 94  1  0  0  0  0
 92 96  1  0  0  0  0
 95 97  1  0  0  0  0
 95 99  2  0  0  0  0
 96 98  1  0  0  0  0
 96100  2  0  0  0  0
101104  2  0  0  0  0
101103  1  0  0  0  0
101112  1  0  0  0  0
102105  2  0  0  0  0
102106  1  0  0  0  0
102113  1  0  0  0  0
103106  2  0  0  0  0
103109  1  0  0  0  0
104107  1  0  0  0  0
104105  1  0  0  0  0
106108  1  0  0  0  0
109110  1  0  0  0  0
109111  1  0  0  0  0
109130  1  0  0  0  0
112114  1  0  0  0  0
113117  1  0  0  0  0
114115  1  0  0  0  0
114116  1  0  0  0  0
114120  1  0  0  0  0
117118  1  0  0  0  0
117119  1  0  0  0  0
117121  1  0  0  0  0
120122  1  0  0  0  0
120124  2  0  0  0  0
121123  1  0  0  0  0
121125  2  0  0  0  0
126129  2  0  0  0  0
126128  1  0  0  0  0
126137  1  0  0  0  0
127130  2  0  0  0  0
127131  1  0  0  0  0
127138  1  0  0  0  0
128131  2  0  0  0  0
128134  1  0  0  0  0
129130  1  0  0  0  0
129132  1  0  0  0  0
131133  1  0  0  0  0
134135  1  0  0  0  0
134136  1  0  0  0  0
137139  1  0  0  0  0
138142  1  0  0  0  0
139140  1  0  0  0  0
139141  1  0  0  0  0
139145  1  0  0  0  0
142143  1  0  0  0  0
142144  1  0  0  0  0
142146  1  0  0  0  0
145147  1  0  0  0  0
145149  2  0  0  0  0
146148  1  0  0  0  0
146150  2  0  0  0  0
M  CHG  8  24  -1  25  -1  47  -1  48  -1  72  -1  73  -1  97  -1  98  -1
M  CHG  4 122  -1 123  -1 147  -1 148  -1
M  END
$$$$
