
  MOE2019           3D

 40 42  0  0  1  0  0  0  0  0999 V2000
    0.1968    1.0592    2.5351 Cl  0  0  0  0  0  0  0  0  0  0  0  0
    1.1364    1.9251    1.3701 C   0  0  0  0  0  0  0  0  0  0  0  0
    2.5232    2.0088    1.5194 C   0  0  0  0  0  0  0  0  0  0  0  0
    2.9950    1.5481    2.3465 H   0  0  0  0  0  0  0  0  0  0  0  0
    3.2703    2.7016    0.5744 C   0  0  0  0  0  0  0  0  0  0  0  0
    2.6416    3.3407   -0.5153 C   0  0  0  0  0  0  0  0  0  0  0  0
    1.2594    3.2360   -0.6589 C   0  0  0  0  0  0  0  0  0  0  0  0
    0.7836    3.7052   -1.4815 H   0  0  0  0  0  0  0  0  0  0  0  0
    0.5071    2.5304    0.2821 C   0  0  0  0  0  0  0  0  0  0  0  0
   -0.5448    2.4540    0.1798 H   0  0  0  0  0  0  0  0  0  0  0  0
    3.5796    4.2754   -1.6736 S   0  0  0  0  0  0  0  0  0  0  0  0
    4.9010    4.7792   -0.6366 C   0  0  0  0  0  0  0  0  0  0  0  0
    5.2620    4.0096    0.4867 C   0  0  0  0  0  0  0  0  0  0  0  0
    6.2011    4.4875    1.3959 C   0  0  0  0  0  0  0  0  0  0  0  0
    6.4086    3.9386    2.2773 H   0  0  0  0  0  0  0  0  0  0  0  0
    6.8517    5.6966    1.1461 C   0  0  0  0  0  0  0  0  0  0  0  0
    7.5648    6.0710    1.8369 H   0  0  0  0  0  0  0  0  0  0  0  0
    6.5520    6.4258   -0.0009 C   0  0  0  0  0  0  0  0  0  0  0  0
    7.0490    7.3447   -0.1880 H   0  0  0  0  0  0  0  0  0  0  0  0
    5.5763    5.9711   -0.8901 C   0  0  0  0  0  0  0  0  0  0  0  0
    5.3242    6.5439   -1.7459 H   0  0  0  0  0  0  0  0  0  0  0  0
    4.6895    2.7166    0.6949 N   0  0  0  0  0  0  0  0  0  0  0  0
    5.2616    1.6257   -0.1013 C   0  0  0  0  0  0  0  0  0  0  0  0
    4.7104    0.7150    0.1061 H   0  0  0  0  0  0  0  0  0  0  0  0
    5.2275    1.8959   -1.1505 H   0  0  0  0  0  0  0  0  0  0  0  0
    6.7227    1.4522    0.3625 C   0  0  0  0  0  0  0  0  0  0  0  0
    6.7199    1.2114    1.4282 H   0  0  0  0  0  0  0  0  0  0  0  0
    7.2638    2.3790    0.1816 H   0  0  0  0  0  0  0  0  0  0  0  0
    7.3035    0.3005   -0.4685 C   0  0  0  0  0  0  0  0  0  0  0  0
    7.2458    0.5411   -1.5269 H   0  0  0  0  0  0  0  0  0  0  0  0
    6.7280   -0.5916   -0.2331 H   0  0  0  0  0  0  0  0  0  0  0  0
    8.7061    0.1318   -0.0116 N   0  3  3  0  0  0  0  0  0  0  0  0
    8.7577    0.1843    1.0587 H   0  0  0  0  0  0  0  0  0  0  0  0
    9.5571    1.2040   -0.5864 C   0  3  0  0  0  0  0  0  0  0  0  0
    9.4083    1.4714   -1.6122 H   0  0  0  0  0  0  0  0  0  0  0  0
   10.5367    1.3434   -0.1785 H   0  0  0  0  0  0  0  0  0  0  0  0
    9.1951   -1.1909   -0.5010 C   0  0  0  0  0  0  0  0  0  0  0  0
    9.1250   -1.2328   -1.5845 H   0  0  0  0  0  0  0  0  0  0  0  0
    8.5637   -1.9639   -0.0703 H   0  0  0  0  0  0  0  0  0  0  0  0
   10.2181   -1.3450   -0.1688 H   0  0  0  0  0  0  0  0  0  0  0  0
  1  2  1  0  0  0  0
  2  3  1  0  0  0  0
  2  9  2  0  0  0  0
  3  4  1  0  0  0  0
  3  5  2  0  0  0  0
  5  6  1  0  0  0  0
  5 22  1  0  0  0  0
  6  7  2  0  0  0  0
  6 11  1  0  0  0  0
  7  8  1  0  0  0  0
  7  9  1  0  0  0  0
  9 10  1  0  0  0  0
 11 12  1  0  0  0  0
 12 13  1  0  0  0  0
 12 20  2  0  0  0  0
 13 14  2  0  0  0  0
 13 22  1  0  0  0  0
 14 15  1  0  0  0  0
 14 16  1  0  0  0  0
 16 17  1  0  0  0  0
 16 18  2  0  0  0  0
 18 19  1  0  0  0  0
 18 20  1  0  0  0  0
 20 21  1  0  0  0  0
 22 23  1  0  0  0  0
 23 24  1  0  0  0  0
 23 25  1  0  0  0  0
 23 26  1  0  0  0  0
 26 27  1  0  0  0  0
 26 28  1  0  0  0  0
 26 29  1  0  0  0  0
 29 30  1  0  0  0  0
 29 31  1  0  0  0  0
 29 32  1  0  0  0  0
 32 33  1  0  0  0  0
 32 34  1  0  0  0  0
 32 37  1  0  0  0  0
 34 35  1  0  0  0  0
 34 36  1  0  0  0  0
 37 38  1  0  0  0  0
 37 39  1  0  0  0  0
 37 40  1  0  0  0  0
M  CHG  1  32   1
M  CHG  1  34   1
M  END
$$$$
