
  MOE2019           3D

 41 43  0  0  1  0  0  0  0  0999 V2000
    4.5535    3.6892   -1.9421 C   0  0  0  0  0  0  0  0  0  0  0  0
    4.7151    3.1587   -2.8732 H   0  0  0  0  0  0  0  0  0  0  0  0
    4.7343    4.7503   -2.0696 H   0  0  0  0  0  0  0  0  0  0  0  0
    3.5485    3.5162   -1.5840 H   0  0  0  0  0  0  0  0  0  0  0  0
    5.4975    3.1629   -0.9313 N   0  3  0  0  0  0  0  0  0  0  0  0
    6.4449    3.2174   -1.2901 H   0  0  0  0  0  0  0  0  0  0  0  0
    5.1219    1.7451   -0.6805 C   0  0  0  0  0  0  0  0  0  0  0  0
    4.0793    1.7071   -0.3862 H   0  0  0  0  0  0  0  0  0  0  0  0
    5.7592    1.3517    0.1025 H   0  0  0  0  0  0  0  0  0  0  0  0
    5.2678    1.1888   -1.5995 H   0  0  0  0  0  0  0  0  0  0  0  0
    5.3939    4.0257    0.3021 C   0  0  3  0  0  0  0  0  0  0  0  0
    5.2299    5.0612    0.0247 H   0  0  0  0  0  0  0  0  0  0  0  0
    6.7653    3.9097    0.9800 C   0  0  0  0  0  0  0  0  0  0  0  0
    6.9467    2.8789    1.2867 H   0  0  0  0  0  0  0  0  0  0  0  0
    6.7736    4.5636    1.8535 H   0  0  0  0  0  0  0  0  0  0  0  0
    7.5335    4.2432    0.2812 H   0  0  0  0  0  0  0  0  0  0  0  0
    4.3062    3.6212    1.3582 C   0  0  0  0  0  0  0  0  0  0  0  0
    4.4118    4.2573    2.2258 H   0  0  0  0  0  0  0  0  0  0  0  0
    4.4558    2.5887    1.6347 H   0  0  0  0  0  0  0  0  0  0  0  0
    2.9557    3.8333    0.7721 N   0  0  0  0  0  0  0  0  0  0  0  0
    2.0390    2.7336    0.6725 C   0  0  0  0  0  0  0  0  0  0  0  0
    1.1749    2.6178   -0.4362 C   0  0  0  0  0  0  0  0  0  0  0  0
    0.3701    1.4873   -0.5625 C   0  0  0  0  0  0  0  0  0  0  0  0
   -0.2686    1.3911   -1.4028 H   0  0  0  0  0  0  0  0  0  0  0  0
    0.3882    0.4968    0.4184 C   0  0  0  0  0  0  0  0  0  0  0  0
   -0.2326   -0.3580    0.3194 H   0  0  0  0  0  0  0  0  0  0  0  0
    1.2027    0.6359    1.5354 C   0  0  0  0  0  0  0  0  0  0  0  0
    1.1932   -0.1090    2.2908 H   0  0  0  0  0  0  0  0  0  0  0  0
    2.0216    1.7566    1.6696 C   0  0  0  0  0  0  0  0  0  0  0  0
    2.6137    1.8627    2.5400 H   0  0  0  0  0  0  0  0  0  0  0  0
    1.0719    3.8626   -1.6648 S   0  0  0  0  0  0  0  0  0  0  0  0
    1.7339    5.2591   -0.8379 C   0  0  0  0  0  0  0  0  0  0  0  0
    2.5586    5.1321    0.3002 C   0  0  0  0  0  0  0  0  0  0  0  0
    3.0175    6.2773    0.9543 C   0  0  0  0  0  0  0  0  0  0  0  0
    3.5889    6.2041    1.8407 H   0  0  0  0  0  0  0  0  0  0  0  0
    2.7051    7.5407    0.4531 C   0  0  0  0  0  0  0  0  0  0  0  0
    3.0546    8.4110    0.9493 H   0  0  0  0  0  0  0  0  0  0  0  0
    1.9254    7.6650   -0.6899 C   0  0  0  0  0  0  0  0  0  0  0  0
    1.6898    8.6283   -1.0674 H   0  0  0  0  0  0  0  0  0  0  0  0
    1.4376    6.5278   -1.3317 C   0  0  0  0  0  0  0  0  0  0  0  0
    0.8277    6.6246   -2.1932 H   0  0  0  0  0  0  0  0  0  0  0  0
  1  2  1  0  0  0  0
  1  3  1  0  0  0  0
  1  4  1  0  0  0  0
  1  5  1  0  0  0  0
  5  6  1  0  0  0  0
  5  7  1  0  0  0  0
  5 11  1  0  0  0  0
  7  8  1  0  0  0  0
  7  9  1  0  0  0  0
  7 10  1  0  0  0  0
 11 12  1  0  0  0  0
 11 13  1  0  0  0  0
 11 17  1  0  0  0  0
 13 14  1  0  0  0  0
 13 15  1  0  0  0  0
 13 16  1  0  0  0  0
 17 18  1  0  0  0  0
 17 19  1  0  0  0  0
 17 20  1  0  0  0  0
 20 21  1  0  0  0  0
 20 33  1  0  0  0  0
 21 22  1  0  0  0  0
 21 29  2  0  0  0  0
 22 23  2  0  0  0  0
 22 31  1  0  0  0  0
 23 24  1  0  0  0  0
 23 25  1  0  0  0  0
 25 26  1  0  0  0  0
 25 27  2  0  0  0  0
 27 28  1  0  0  0  0
 27 29  1  0  0  0  0
 29 30  1  0  0  0  0
 31 32  1  0  0  0  0
 32 33  1  0  0  0  0
 32 40  2  0  0  0  0
 33 34  2  0  0  0  0
 34 35  1  0  0  0  0
 34 36  1  0  0  0  0
 36 37  1  0  0  0  0
 36 38  2  0  0  0  0
 38 39  1  0  0  0  0
 38 40  1  0  0  0  0
 40 41  1  0  0  0  0
M  CHG  1   5   1
M  END
$$$$
