
  MOE2019           3D

 52 55  0  0  1  0  0  0  0  0999 V2000
    6.3842   -4.3753   -0.9901 C   0  0  0  0  0  0  0  0  0  0  0  0
    7.3664   -4.6091   -1.3841 H   0  0  0  0  0  0  0  0  0  0  0  0
    6.4057   -3.4016   -0.5124 H   0  0  0  0  0  0  0  0  0  0  0  0
    5.6318   -4.4209   -1.7671 H   0  0  0  0  0  0  0  0  0  0  0  0
    6.0666   -5.3740    0.0475 N   0  3  3  0  0  0  0  0  0  0  0  0
    6.8512   -5.3337    0.7205 H   0  0  0  0  0  0  0  0  0  0  0  0
    5.9925   -6.7189   -0.5200 C   0  0  0  0  0  0  0  0  0  0  0  0
    4.9906   -6.9162   -0.8815 H   0  0  0  0  0  0  0  0  0  0  0  0
    6.7487   -6.8561   -1.2841 H   0  0  0  0  0  0  0  0  0  0  0  0
    6.3115   -7.6706    0.6544 C   0  0  0  0  0  0  0  0  0  0  0  0
    5.9520   -8.6680    0.3990 H   0  0  0  0  0  0  0  0  0  0  0  0
    7.3919   -7.7168    0.8055 H   0  0  0  0  0  0  0  0  0  0  0  0
    5.6402   -7.1848    1.9602 C   0  0  0  0  0  0  0  0  0  0  0  0
    6.3639   -6.6148    2.5497 H   0  0  0  0  0  0  0  0  0  0  0  0
    5.3394   -8.0476    2.5578 H   0  0  0  0  0  0  0  0  0  0  0  0
    4.4186   -6.2948    1.6730 C   0  0  0  0  0  0  0  0  0  0  0  0
    3.9785   -5.9770    2.6192 H   0  0  0  0  0  0  0  0  0  0  0  0
    3.6802   -6.8815    1.1237 H   0  0  0  0  0  0  0  0  0  0  0  0
    4.8624   -5.0322    0.8636 C   0  0  3  0  0  0  0  0  0  0  0  0
    5.1172   -4.2331    1.5535 H   0  0  0  0  0  0  0  0  0  0  0  0
    3.6810   -4.5915   -0.0364 C   0  0  0  0  0  0  0  0  0  0  0  0
    3.9554   -3.7415   -0.6559 H   0  0  0  0  0  0  0  0  0  0  0  0
    3.3553   -5.4124   -0.6708 H   0  0  0  0  0  0  0  0  0  0  0  0
    2.5391   -4.1179    0.8821 C   0  0  0  0  0  0  0  0  0  0  0  0
    2.8679   -3.2496    1.4414 H   0  0  0  0  0  0  0  0  0  0  0  0
    2.2108   -4.9174    1.5338 H   0  0  0  0  0  0  0  0  0  0  0  0
    1.4417   -3.7529   -0.0229 N   0  0  0  0  0  0  0  0  0  0  0  0
    0.3586   -4.6826   -0.0065 C   0  0  0  0  0  0  0  0  0  0  0  0
   -0.7905   -4.4462    0.7715 C   0  0  0  0  0  0  0  0  0  0  0  0
   -1.7743   -5.4297    0.8394 C   0  0  0  0  0  0  0  0  0  0  0  0
   -2.6329   -5.2617    1.4368 H   0  0  0  0  0  0  0  0  0  0  0  0
   -1.6372   -6.6206    0.1257 C   0  0  0  0  0  0  0  0  0  0  0  0
   -2.3911   -7.3581    0.1958 H   0  0  0  0  0  0  0  0  0  0  0  0
   -0.5105   -6.8385   -0.6762 C   0  0  0  0  0  0  0  0  0  0  0  0
   -0.2746   -8.3096   -1.6019 S   0  0  0  0  0  0  0  0  0  0  0  0
   -1.8761   -9.1847   -1.6200 C   0  0  0  0  0  0  0  0  0  0  0  0
   -1.7738  -10.0249   -2.3071 H   0  0  0  0  0  0  0  0  0  0  0  0
   -2.6338   -8.4828   -1.9698 H   0  0  0  0  0  0  0  0  0  0  0  0
   -2.0779   -9.5312   -0.6065 H   0  0  0  0  0  0  0  0  0  0  0  0
    0.4828   -5.8560   -0.7410 C   0  0  0  0  0  0  0  0  0  0  0  0
    1.3243   -6.0144   -1.3586 H   0  0  0  0  0  0  0  0  0  0  0  0
   -1.0136   -2.9418    1.6493 S   0  0  0  0  0  0  0  0  0  0  0  0
    0.0498   -1.8675    0.7624 C   0  0  0  0  0  0  0  0  0  0  0  0
    1.1230   -2.3630   -0.0053 C   0  0  0  0  0  0  0  0  0  0  0  0
    1.9235   -1.4906   -0.7370 C   0  0  0  0  0  0  0  0  0  0  0  0
    2.7108   -1.8700   -1.3322 H   0  0  0  0  0  0  0  0  0  0  0  0
    1.6827   -0.1174   -0.6875 C   0  0  0  0  0  0  0  0  0  0  0  0
    2.2929    0.5489   -1.2426 H   0  0  0  0  0  0  0  0  0  0  0  0
    0.6414    0.3796    0.0887 C   0  0  0  0  0  0  0  0  0  0  0  0
    0.4625    1.4241    0.1265 H   0  0  0  0  0  0  0  0  0  0  0  0
   -0.1734   -0.4923    0.8121 C   0  0  0  0  0  0  0  0  0  0  0  0
   -0.9722   -0.1147    1.3965 H   0  0  0  0  0  0  0  0  0  0  0  0
  1  2  1  0  0  0  0
  1  3  1  0  0  0  0
  1  4  1  0  0  0  0
  1  5  1  0  0  0  0
  5  6  1  0  0  0  0
  5  7  1  0  0  0  0
  5 19  1  0  0  0  0
  7  8  1  0  0  0  0
  7  9  1  0  0  0  0
  7 10  1  0  0  0  0
 10 11  1  0  0  0  0
 10 12  1  0  0  0  0
 10 13  1  0  0  0  0
 13 14  1  0  0  0  0
 13 15  1  0  0  0  0
 13 16  1  0  0  0  0
 16 17  1  0  0  0  0
 16 18  1  0  0  0  0
 16 19  1  0  0  0  0
 19 20  1  0  0  0  0
 19 21  1  0  0  0  0
 21 22  1  0  0  0  0
 21 23  1  0  0  0  0
 21 24  1  0  0  0  0
 24 25  1  0  0  0  0
 24 26  1  0  0  0  0
 24 27  1  0  0  0  0
 27 28  1  0  0  0  0
 27 44  1  0  0  0  0
 28 29  1  0  0  0  0
 28 40  2  0  0  0  0
 29 30  2  0  0  0  0
 29 42  1  0  0  0  0
 30 31  1  0  0  0  0
 30 32  1  0  0  0  0
 32 33  1  0  0  0  0
 32 34  2  0  0  0  0
 34 35  1  0  0  0  0
 34 40  1  0  0  0  0
 35 36  1  0  0  0  0
 36 37  1  0  0  0  0
 36 38  1  0  0  0  0
 36 39  1  0  0  0  0
 40 41  1  0  0  0  0
 42 43  1  0  0  0  0
 43 44  1  0  0  0  0
 43 51  2  0  0  0  0
 44 45  2  0  0  0  0
 45 46  1  0  0  0  0
 45 47  1  0  0  0  0
 47 48  1  0  0  0  0
 47 49  2  0  0  0  0
 49 50  1  0  0  0  0
 49 51  1  0  0  0  0
 51 52  1  0  0  0  0
M  CHG  1   5   1
M  END
$$$$

  MOE2019           3D

  1  0  0  0  0  0  0  0  0  0999 V2000
    8.1645   -4.0021    2.0746 Cl  0  5  0  0  0  0  0  0  0  0  0  0
M  CHG  1   1  -1
M  END
$$$$
