
  MOE2019           3D

 54 57  0  0  0  0  0  0  0  0999 V2000
   15.4031   -5.3273   -0.8191 C   0  0  0  0  0  0  0  0  0  0  0  0
   15.3445   -6.0152   -1.6564 H   0  0  0  0  0  0  0  0  0  0  0  0
   16.0326   -5.7469   -0.0411 H   0  0  0  0  0  0  0  0  0  0  0  0
   15.7940   -4.3692   -1.1447 H   0  0  0  0  0  0  0  0  0  0  0  0
   14.0305   -5.1324   -0.2664 N   0  3  0  0  0  0  0  0  0  0  0  0
   13.6668   -6.0351    0.0398 H   0  0  0  0  0  0  0  0  0  0  0  0
   13.1811   -4.5266   -1.3571 C   0  0  0  0  0  0  0  0  0  0  0  0
   13.6060   -3.5856   -1.6884 H   0  0  0  0  0  0  0  0  0  0  0  0
   13.0870   -5.2291   -2.1791 H   0  0  0  0  0  0  0  0  0  0  0  0
   11.7460   -4.2488   -0.7915 C   0  0  0  0  0  0  0  0  0  0  0  0
   11.3270   -5.1875   -0.4461 H   0  0  0  0  0  0  0  0  0  0  0  0
   11.1537   -3.8233   -1.5945 H   0  0  0  0  0  0  0  0  0  0  0  0
   14.1345   -4.1507    0.8754 C   0  0  0  0  0  0  0  0  0  0  0  0
   14.7300   -4.5820    1.6736 H   0  0  0  0  0  0  0  0  0  0  0  0
   14.5562   -3.2132    0.5298 H   0  0  0  0  0  0  0  0  0  0  0  0
   12.6996   -3.8699    1.4411 C   0  0  0  0  0  0  0  0  0  0  0  0
   12.7982   -3.1690    2.2637 H   0  0  0  0  0  0  0  0  0  0  0  0
   12.2742   -4.8107    1.7727 H   0  0  0  0  0  0  0  0  0  0  0  0
   11.8446   -3.2606    0.3550 N   0  3  0  0  0  0  0  0  0  0  0  0
   12.2074   -2.3580    0.0519 H   0  0  0  0  0  0  0  0  0  0  0  0
   10.4870   -3.0595    0.9301 C   0  0  0  0  0  0  0  0  0  0  0  0
    9.9288   -3.9900    0.9564 H   0  0  0  0  0  0  0  0  0  0  0  0
   10.5613   -2.5999    1.9110 H   0  0  0  0  0  0  0  0  0  0  0  0
    9.7774   -2.0648    0.0034 C   0  0  0  0  0  0  0  0  0  0  0  0
   10.3407   -1.1339   -0.0642 H   0  0  0  0  0  0  0  0  0  0  0  0
    9.6140   -2.4846   -0.9894 H   0  0  0  0  0  0  0  0  0  0  0  0
    8.4120   -1.7864    0.6548 C   0  0  0  0  0  0  0  0  0  0  0  0
    8.5374   -1.2199    1.5706 H   0  0  0  0  0  0  0  0  0  0  0  0
    7.8999   -2.7270    0.8226 H   0  0  0  0  0  0  0  0  0  0  0  0
    7.6631   -0.9929   -0.3226 N   0  0  0  0  0  0  0  0  0  0  0  0
    6.2971   -1.3859   -0.3651 C   0  0  0  0  0  0  0  0  0  0  0  0
    5.3533   -0.8138    0.5081 C   0  0  0  0  0  0  0  0  0  0  0  0
    4.0492   -1.2994    0.5050 C   0  0  0  0  0  0  0  0  0  0  0  0
    3.3360   -0.8798    1.1670 H   0  0  0  0  0  0  0  0  0  0  0  0
    3.6801   -2.3215   -0.3715 C   0  0  0  0  0  0  0  0  0  0  0  0
    2.6766   -2.6683   -0.3611 H   0  0  0  0  0  0  0  0  0  0  0  0
    4.6097   -2.8795   -1.2583 C   0  0  0  0  0  0  0  0  0  0  0  0
    4.2038   -3.9894   -2.2384 C   0  0  0  0  0  0  0  0  0  0  0  0
    3.8585   -3.4438   -3.4138 F   0  0  0  0  0  0  0  0  0  0  0  0
    3.1625   -4.6919   -1.7542 F   0  0  0  0  0  0  0  0  0  0  0  0
    5.2412   -4.8326   -2.4303 F   0  0  0  0  0  0  0  0  0  0  0  0
    5.9253   -2.3904   -1.2506 C   0  0  0  0  0  0  0  0  0  0  0  0
    6.6495   -2.7800   -1.9190 H   0  0  0  0  0  0  0  0  0  0  0  0
    5.7956    0.5014    1.5819 S   0  0  0  0  0  0  0  0  0  0  0  0
    7.1428    1.1916    0.6947 C   0  0  0  0  0  0  0  0  0  0  0  0
    7.8874    0.4129   -0.2139 C   0  0  0  0  0  0  0  0  0  0  0  0
    8.8756    1.0004   -0.9978 C   0  0  0  0  0  0  0  0  0  0  0  0
    9.3914    0.4227   -1.7182 H   0  0  0  0  0  0  0  0  0  0  0  0
    9.1757    2.3532   -0.8356 C   0  0  0  0  0  0  0  0  0  0  0  0
    9.9298    2.8057   -1.4284 H   0  0  0  0  0  0  0  0  0  0  0  0
    8.4827    3.1137    0.1007 C   0  0  0  0  0  0  0  0  0  0  0  0
    8.7186    4.1400    0.2261 H   0  0  0  0  0  0  0  0  0  0  0  0
    7.4667    2.5361    0.8637 C   0  0  0  0  0  0  0  0  0  0  0  0
    6.9259    3.1204    1.5626 H   0  0  0  0  0  0  0  0  0  0  0  0
  1  2  1  0  0  0  0
  1  3  1  0  0  0  0
  1  4  1  0  0  0  0
  1  5  1  0  0  0  0
  5  6  1  0  0  0  0
  5  7  1  0  0  0  0
  5 13  1  0  0  0  0
  7  8  1  0  0  0  0
  7  9  1  0  0  0  0
  7 10  1  0  0  0  0
 10 11  1  0  0  0  0
 10 12  1  0  0  0  0
 10 19  1  0  0  0  0
 13 14  1  0  0  0  0
 13 15  1  0  0  0  0
 13 16  1  0  0  0  0
 16 17  1  0  0  0  0
 16 18  1  0  0  0  0
 16 19  1  0  0  0  0
 19 20  1  0  0  0  0
 19 21  1  0  0  0  0
 21 22  1  0  0  0  0
 21 23  1  0  0  0  0
 21 24  1  0  0  0  0
 24 25  1  0  0  0  0
 24 26  1  0  0  0  0
 24 27  1  0  0  0  0
 27 28  1  0  0  0  0
 27 29  1  0  0  0  0
 27 30  1  0  0  0  0
 30 31  1  0  0  0  0
 30 46  1  0  0  0  0
 31 32  1  0  0  0  0
 31 42  2  0  0  0  0
 32 33  2  0  0  0  0
 32 44  1  0  0  0  0
 33 34  1  0  0  0  0
 33 35  1  0  0  0  0
 35 36  1  0  0  0  0
 35 37  2  0  0  0  0
 37 38  1  0  0  0  0
 37 42  1  0  0  0  0
 38 39  1  0  0  0  0
 38 40  1  0  0  0  0
 38 41  1  0  0  0  0
 42 43  1  0  0  0  0
 44 45  1  0  0  0  0
 45 46  1  0  0  0  0
 45 53  2  0  0  0  0
 46 47  2  0  0  0  0
 47 48  1  0  0  0  0
 47 49  1  0  0  0  0
 49 50  1  0  0  0  0
 49 51  2  0  0  0  0
 51 52  1  0  0  0  0
 51 53  1  0  0  0  0
 53 54  1  0  0  0  0
M  CHG  1   5   1
M  CHG  1  19   1
M  END
$$$$
