
  -OEChem-11202122543D

147154  0     1  0  0  0  0  0999 V2000
   10.9750    5.5010    1.3080 C   0  0  2  0  0  0  0  0  0  0  0  0
    9.9060    5.1810    0.2650 C   0  0  1  0  0  0  0  0  0  0  0  0
   10.4780    4.2580   -0.8190 C   0  0  2  0  0  0  0  0  0  0  0  0
   11.7570    4.8790   -1.3910 C   0  0  1  0  0  0  0  0  0  0  0  0
   12.7640    5.1520   -0.2770 C   0  0  1  0  0  0  0  0  0  0  0  0
   13.9490    5.9670   -0.8100 C   0  0  0  0  0  0  0  0  0  0  0  0
   12.0320    2.9690    5.8680 C   0  0  2  0  0  0  0  0  0  0  0  0
   10.6440    2.8510    5.3490 C   0  0  1  0  0  0  0  0  0  0  0  0
   10.5820    3.0340    3.8290 C   0  0  2  0  0  0  0  0  0  0  0  0
   11.2880    4.2600    3.4310 C   0  0  1  0  0  0  0  0  0  0  0  0
   12.7230    4.2310    3.9550 C   0  0  1  0  0  0  0  0  0  0  0  0
   13.6180    5.4270    3.6250 C   0  0  0  0  0  0  0  0  0  0  0  0
   15.4370   -0.9030    7.0090 C   0  0  2  0  0  0  0  0  0  0  0  0
   13.9860   -1.3330    6.9710 C   0  0  1  0  0  0  0  0  0  0  0  0
   13.2290   -0.4120    6.0090 C   0  0  2  0  0  0  0  0  0  0  0  0
   13.4200    0.8370    6.4600 C   0  0  1  0  0  0  0  0  0  0  0  0
   14.9040    1.3960    6.5700 C   0  0  1  0  0  0  0  0  0  0  0  0
   15.1210    2.7080    7.2130 C   0  0  0  0  0  0  0  0  0  0  0  0
   19.1890   -2.6270    3.6690 C   0  0  2  0  0  0  0  0  0  0  0  0
   18.3860   -3.6550    4.4960 C   0  0  1  0  0  0  0  0  0  0  0  0
   17.0510   -3.0290    4.8690 C   0  0  2  0  0  0  0  0  0  0  0  0
   17.2770   -1.7220    5.5910 C   0  0  1  0  0  0  0  0  0  0  0  0
   18.1770   -0.8010    4.7710 C   0  0  1  0  0  0  0  0  0  0  0  0
   18.6100    0.4400    5.6110 C   0  0  0  0  0  0  0  0  0  0  0  0
   19.0090   -2.3240   -1.6390 C   0  0  2  0  0  0  0  0  0  0  0  0
   18.6260   -3.6440   -0.9740 C   0  0  1  0  0  0  0  0  0  0  0  0
   18.0470   -3.4060    0.4050 C   0  0  2  0  0  0  0  0  0  0  0  0
   19.0390   -2.6280    1.2380 C   0  0  1  0  0  0  0  0  0  0  0  0
   19.3750   -1.3350    0.5150 C   0  0  1  0  0  0  0  0  0  0  0  0
   20.4390   -0.4790    1.2450 C   0  0  0  0  0  0  0  0  0  0  0  0
   16.0710    0.6360   -4.9150 C   0  0  2  0  0  0  0  0  0  0  0  0
   15.9370   -0.8890   -4.9720 C   0  0  1  0  0  0  0  0  0  0  0  0
   16.2480   -1.4830   -3.6060 C   0  0  2  0  0  0  0  0  0  0  0  0
   17.6280   -1.0410   -3.1730 C   0  0  1  0  0  0  0  0  0  0  0  0
   17.6980    0.4900   -3.1410 C   0  0  1  0  0  0  0  0  0  0  0  0
   19.0790    1.0360   -2.8210 C   0  0  0  0  0  0  0  0  0  0  0  0
   12.4440    4.2710   -3.6340 C   0  0  1  0  0  0  0  0  0  0  0  0
   11.9700    3.0920   -4.4930 C   0  0  1  0  0  0  0  0  0  0  0  0
   12.8640    1.8720   -4.2580 C   0  0  2  0  0  0  0  0  0  0  0  0
   14.3110    2.2530   -4.5010 C   0  0  1  0  0  0  0  0  0  0  0  0
   14.7340    3.4880   -3.7110 C   0  0  1  0  0  0  0  0  0  0  0  0
   16.0800    4.0430   -4.1520 C   0  0  0  0  0  0  0  0  0  0  0  0
    8.7830    4.5750    0.9070 O   0  0  0  0  0  0  0  0  0  0  0  0
    9.5300    4.1210   -1.8820 O   0  0  0  0  0  0  0  0  0  0  0  0
   12.2990    3.8830   -2.2790 O   0  0  0  0  0  0  0  0  0  0  0  0
   12.1190    6.0460    0.6890 O   0  0  0  0  0  0  0  0  0  0  0  0
   14.9100    6.0730    0.2070 O   0  0  0  0  0  0  0  0  0  0  0  0
   10.1180    1.5620    5.7240 O   0  0  0  0  0  0  0  0  0  0  0  0
    9.1830    3.0670    3.4190 O   0  0  0  0  0  0  0  0  0  0  0  0
   11.3060    4.2870    1.9800 O   0  0  0  0  0  0  0  0  0  0  0  0
   12.6520    4.1570    5.4070 O   0  0  0  0  0  0  0  0  0  0  0  0
   14.8200    5.1910    3.9200 O   0  0  0  0  0  0  0  0  0  0  0  0
   13.8650   -2.7020    6.5650 O   0  0  0  0  0  0  0  0  0  0  0  0
   11.8260   -0.7130    6.0340 O   0  0  0  0  0  0  0  0  0  0  0  0
   12.7860    1.8280    5.4320 O   0  0  0  0  0  0  0  0  0  0  0  0
   15.5600    0.4280    7.4300 O   0  0  0  0  0  0  0  0  0  0  0  0
   14.4940    2.7400    8.4980 O   0  0  0  0  0  0  0  0  0  0  0  0
   18.1770   -4.8470    3.7430 O   0  0  0  0  0  0  0  0  0  0  0  0
   16.2930   -3.9280    5.6960 O   0  0  0  0  0  0  0  0  0  0  0  0
   15.9810   -1.0930    5.7140 O   0  0  0  0  0  0  0  0  0  0  0  0
   19.3790   -1.4660    4.4160 O   0  0  0  0  0  0  0  0  0  0  0  0
   19.3510    1.3310    4.8160 O   0  0  0  0  0  0  0  0  0  0  0  0
   17.6910   -4.3430   -1.8290 O   0  0  0  0  0  0  0  0  0  0  0  0
   17.7450   -4.6620    1.0130 O   0  0  0  0  0  0  0  0  0  0  0  0
   18.4390   -2.3500    2.4870 O   0  0  0  0  0  0  0  0  0  0  0  0
   19.9140   -1.6070   -0.7920 O   0  0  0  0  0  0  0  0  0  0  0  0
   21.5790   -1.2020    1.5890 O   0  0  0  0  0  0  0  0  0  0  0  0
   14.5810   -1.1880   -5.3980 O   0  0  0  0  0  0  0  0  0  0  0  0
   16.1990   -2.9210   -3.6990 O   0  0  0  0  0  0  0  0  0  0  0  0
   17.8390   -1.5650   -1.8540 O   0  0  0  0  0  0  0  0  0  0  0  0
   17.3830    0.9750   -4.4730 O   0  0  0  0  0  0  0  0  0  0  0  0
   20.0810    0.5840   -3.7220 O   0  0  0  0  0  0  0  0  0  0  0  0
   10.5990    2.7730   -4.1860 O   0  0  0  0  0  0  0  0  0  0  0  0
   12.4880    0.8080   -5.1540 O   0  0  0  0  0  0  0  0  0  0  0  0
   15.0910    1.1530   -4.0460 O   0  0  0  0  0  0  0  0  0  0  0  0
   13.7820    4.5800   -3.9470 O   0  0  0  0  0  0  0  0  0  0  0  0
   16.0270    4.3850   -5.5380 O   0  0  0  0  0  0  0  0  0  0  0  0
   13.2770    6.2940    4.1920 H   0  0  0  0  0  0  0  0  0  0  0  0
   13.5490    5.6400    2.5590 H   0  0  0  0  0  0  0  0  0  0  0  0
    9.0870    3.7640    1.3200 H   0  0  0  0  0  0  0  0  0  0  0  0
    9.3700    4.9960   -2.2430 H   0  0  0  0  0  0  0  0  0  0  0  0
   15.1520    5.1830    0.4720 H   0  0  0  0  0  0  0  0  0  0  0  0
   10.6730    0.8930    5.3170 H   0  0  0  0  0  0  0  0  0  0  0  0
    8.7710    3.8180    3.8520 H   0  0  0  0  0  0  0  0  0  0  0  0
   14.8570    5.0070    4.8620 H   0  0  0  0  0  0  0  0  0  0  0  0
   14.2520   -2.7810    5.6900 H   0  0  0  0  0  0  0  0  0  0  0  0
   11.5190   -0.5910    6.9350 H   0  0  0  0  0  0  0  0  0  0  0  0
   13.5570    2.5770    8.3680 H   0  0  0  0  0  0  0  0  0  0  0  0
   17.6940   -4.6080    2.9490 H   0  0  0  0  0  0  0  0  0  0  0  0
   16.8060   -4.0940    6.4900 H   0  0  0  0  0  0  0  0  0  0  0  0
   18.7900    1.6060    4.0870 H   0  0  0  0  0  0  0  0  0  0  0  0
   16.9160   -3.7840   -1.9290 H   0  0  0  0  0  0  0  0  0  0  0  0
   18.5680   -5.1480    1.1000 H   0  0  0  0  0  0  0  0  0  0  0  0
   21.9800   -1.5170    0.7750 H   0  0  0  0  0  0  0  0  0  0  0  0
   13.9840   -0.8390   -4.7320 H   0  0  0  0  0  0  0  0  0  0  0  0
   16.8430   -3.1910   -4.3580 H   0  0  0  0  0  0  0  0  0  0  0  0
   19.8110    0.8380   -4.6070 H   0  0  0  0  0  0  0  0  0  0  0  0
   10.5580    2.5330   -3.2570 H   0  0  0  0  0  0  0  0  0  0  0  0
   12.5920    1.1330   -6.0510 H   0  0  0  0  0  0  0  0  0  0  0  0
   15.7990    3.5900   -6.0250 H   0  0  0  0  0  0  0  0  0  0  0  0
   10.5660    6.2010    2.0410 H   0  0  0  0  0  0  0  0  0  0  0  0
    9.5890    6.1040   -0.2120 H   0  0  0  0  0  0  0  0  0  0  0  0
   10.6990    3.2950   -0.3700 H   0  0  0  0  0  0  0  0  0  0  0  0
   11.5360    5.8080   -1.9130 H   0  0  0  0  0  0  0  0  0  0  0  0
   13.1090    4.1990    0.2260 H   0  0  0  0  0  0  0  0  0  0  0  0
   14.4200    5.4580   -1.6990 H   0  0  0  0  0  0  0  0  0  0  0  0
   13.5960    6.9540   -1.1940 H   0  0  0  0  0  0  0  0  0  0  0  0
   12.0020    2.9820    6.9700 H   0  0  0  0  0  0  0  0  0  0  0  0
   10.0200    3.6080    5.8060 H   0  0  0  0  0  0  0  0  0  0  0  0
   11.0710    2.1660    3.3320 H   0  0  0  0  0  0  0  0  0  0  0  0
   10.7540    5.1420    3.8140 H   0  0  0  0  0  0  0  0  0  0  0  0
   13.2300    3.3420    3.5710 H   0  0  0  0  0  0  0  0  0  0  0  0
   15.9950   -1.5640    7.7090 H   0  0  0  0  0  0  0  0  0  0  0  0
   13.5510   -1.2230    7.9630 H   0  0  0  0  0  0  0  0  0  0  0  0
   13.6290   -0.5370    4.9960 H   0  0  0  0  0  0  0  0  0  0  0  0
   12.9240    1.1510    7.4310 H   0  0  0  0  0  0  0  0  0  0  0  0
   15.3630    1.3680    5.5760 H   0  0  0  0  0  0  0  0  0  0  0  0
   14.7420    3.5170    6.5590 H   0  0  0  0  0  0  0  0  0  0  0  0
   16.2160    2.8940    7.3300 H   0  0  0  0  0  0  0  0  0  0  0  0
   20.1580   -3.0380    3.3980 H   0  0  0  0  0  0  0  0  0  0  0  0
   18.9350   -3.9020    5.4050 H   0  0  0  0  0  0  0  0  0  0  0  0
   16.4900   -2.8230    3.9590 H   0  0  0  0  0  0  0  0  0  0  0  0
   17.7220   -1.9200    6.5660 H   0  0  0  0  0  0  0  0  0  0  0  0
   17.6520   -0.4420    3.8820 H   0  0  0  0  0  0  0  0  0  0  0  0
   17.7260    0.9380    6.0310 H   0  0  0  0  0  0  0  0  0  0  0  0
   19.2230    0.0920    6.4730 H   0  0  0  0  0  0  0  0  0  0  0  0
   19.5290   -2.5370   -2.5890 H   0  0  0  0  0  0  0  0  0  0  0  0
   19.5130   -4.2830   -0.8580 H   0  0  0  0  0  0  0  0  0  0  0  0
   17.1300   -2.8260    0.2910 H   0  0  0  0  0  0  0  0  0  0  0  0
   19.9480   -3.2110    1.3720 H   0  0  0  0  0  0  0  0  0  0  0  0
   18.4700   -0.7570    0.3810 H   0  0  0  0  0  0  0  0  0  0  0  0
   20.6850    0.3720    0.6380 H   0  0  0  0  0  0  0  0  0  0  0  0
   19.9610   -0.1070    2.1750 H   0  0  0  0  0  0  0  0  0  0  0  0
   15.9090    1.0450   -5.9190 H   0  0  0  0  0  0  0  0  0  0  0  0
   16.6500   -1.2780   -5.7180 H   0  0  0  0  0  0  0  0  0  0  0  0
   15.5350   -1.1230   -2.8710 H   0  0  0  0  0  0  0  0  0  0  0  0
   18.3780   -1.4500   -3.8800 H   0  0  0  0  0  0  0  0  0  0  0  0
   16.9480    0.8610   -2.4220 H   0  0  0  0  0  0  0  0  0  0  0  0
   19.0470    2.1350   -2.8580 H   0  0  0  0  0  0  0  0  0  0  0  0
   19.3560    0.7600   -1.7940 H   0  0  0  0  0  0  0  0  0  0  0  0
   11.7980    5.1470   -3.8240 H   0  0  0  0  0  0  0  0  0  0  0  0
   12.0370    3.3650   -5.5340 H   0  0  0  0  0  0  0  0  0  0  0  0
   12.7580    1.5340   -3.2110 H   0  0  0  0  0  0  0  0  0  0  0  0
   14.4730    2.4210   -5.5760 H   0  0  0  0  0  0  0  0  0  0  0  0
   14.7600    3.2440   -2.6360 H   0  0  0  0  0  0  0  0  0  0  0  0
   16.8700    3.2970   -3.9960 H   0  0  0  0  0  0  0  0  0  0  0  0
   16.3390    4.9330   -3.5580 H   0  0  0  0  0  0  0  0  0  0  0  0
  1  2  1  0  0  0  0
  1 46  1  0  0  0  0
  1 50  1  0  0  0  0
  1101  1  0  0  0  0
  2  3  1  0  0  0  0
  2 43  1  0  0  0  0
  2102  1  0  0  0  0
  3  4  1  0  0  0  0
  3 44  1  0  0  0  0
  3103  1  0  0  0  0
  4  5  1  0  0  0  0
  4 45  1  0  0  0  0
  4104  1  0  0  0  0
  5  6  1  0  0  0  0
  5 46  1  0  0  0  0
  5105  1  0  0  0  0
  6 47  1  0  0  0  0
  6106  1  0  0  0  0
  6107  1  0  0  0  0
  7  8  1  0  0  0  0
  7 51  1  0  0  0  0
  7 55  1  0  0  0  0
  7108  1  0  0  0  0
  8  9  1  0  0  0  0
  8 48  1  0  0  0  0
  8109  1  0  0  0  0
  9 10  1  0  0  0  0
  9 49  1  0  0  0  0
  9110  1  0  0  0  0
 10 11  1  0  0  0  0
 10 50  1  0  0  0  0
 10111  1  0  0  0  0
 11 12  1  0  0  0  0
 11 51  1  0  0  0  0
 11112  1  0  0  0  0
 12 52  1  0  0  0  0
 12 78  1  0  0  0  0
 12 79  1  0  0  0  0
 13 14  1  0  0  0  0
 13 56  1  0  0  0  0
 13 60  1  0  0  0  0
 13113  1  0  0  0  0
 14 15  1  0  0  0  0
 14 53  1  0  0  0  0
 14114  1  0  0  0  0
 15 16  1  0  0  0  0
 15 54  1  0  0  0  0
 15115  1  0  0  0  0
 16 17  1  0  0  0  0
 16 55  1  0  0  0  0
 16116  1  0  0  0  0
 17 18  1  0  0  0  0
 17 56  1  0  0  0  0
 17117  1  0  0  0  0
 18 57  1  0  0  0  0
 18118  1  0  0  0  0
 18119  1  0  0  0  0
 19 20  1  0  0  0  0
 19 61  1  0  0  0  0
 19 65  1  0  0  0  0
 19120  1  0  0  0  0
 20 21  1  0  0  0  0
 20 58  1  0  0  0  0
 20121  1  0  0  0  0
 21 22  1  0  0  0  0
 21 59  1  0  0  0  0
 21122  1  0  0  0  0
 22 23  1  0  0  0  0
 22 60  1  0  0  0  0
 22123  1  0  0  0  0
 23 24  1  0  0  0  0
 23 61  1  0  0  0  0
 23124  1  0  0  0  0
 24 62  1  0  0  0  0
 24125  1  0  0  0  0
 24126  1  0  0  0  0
 25 26  1  0  0  0  0
 25 66  1  0  0  0  0
 25 70  1  0  0  0  0
 25127  1  0  0  0  0
 26 27  1  0  0  0  0
 26 63  1  0  0  0  0
 26128  1  0  0  0  0
 27 28  1  0  0  0  0
 27 64  1  0  0  0  0
 27129  1  0  0  0  0
 28 29  1  0  0  0  0
 28 65  1  0  0  0  0
 28130  1  0  0  0  0
 29 30  1  0  0  0  0
 29 66  1  0  0  0  0
 29131  1  0  0  0  0
 30 67  1  0  0  0  0
 30132  1  0  0  0  0
 30133  1  0  0  0  0
 31 32  1  0  0  0  0
 31 71  1  0  0  0  0
 31 75  1  0  0  0  0
 31134  1  0  0  0  0
 32 33  1  0  0  0  0
 32 68  1  0  0  0  0
 32135  1  0  0  0  0
 33 34  1  0  0  0  0
 33 69  1  0  0  0  0
 33136  1  0  0  0  0
 34 35  1  0  0  0  0
 34 70  1  0  0  0  0
 34137  1  0  0  0  0
 35 36  1  0  0  0  0
 35 71  1  0  0  0  0
 35138  1  0  0  0  0
 36 72  1  0  0  0  0
 36139  1  0  0  0  0
 36140  1  0  0  0  0
 37 38  1  0  0  0  0
 37 45  1  0  0  0  0
 37 76  1  0  0  0  0
 37141  1  0  0  0  0
 38 39  1  0  0  0  0
 38 73  1  0  0  0  0
 38142  1  0  0  0  0
 39 40  1  0  0  0  0
 39 74  1  0  0  0  0
 39143  1  0  0  0  0
 40 41  1  0  0  0  0
 40 75  1  0  0  0  0
 40144  1  0  0  0  0
 41 42  1  0  0  0  0
 41 76  1  0  0  0  0
 41145  1  0  0  0  0
 42 77  1  0  0  0  0
 42146  1  0  0  0  0
 42147  1  0  0  0  0
 43 80  1  0  0  0  0
 44 81  1  0  0  0  0
 47 82  1  0  0  0  0
 48 83  1  0  0  0  0
 49 84  1  0  0  0  0
 52 85  1  0  0  0  0
 53 86  1  0  0  0  0
 54 87  1  0  0  0  0
 57 88  1  0  0  0  0
 58 89  1  0  0  0  0
 59 90  1  0  0  0  0
 62 91  1  0  0  0  0
 63 92  1  0  0  0  0
 64 93  1  0  0  0  0
 67 94  1  0  0  0  0
 68 95  1  0  0  0  0
 69 96  1  0  0  0  0
 72 97  1  0  0  0  0
 73 98  1  0  0  0  0
 74 99  1  0  0  0  0
 77100  1  0  0  0  0
M  END
$$$$
