1107195.cif
  MOE2019           3D
1107195.cif
147154  0  0  1  0  0  0  0  0999 V2000
   10.9752    5.5007    1.3077 C   0  0  3  0  0  0  0  0  0  0  0  0
    9.9060    5.1805    0.2654 C   0  0  3  0  0  0  0  0  0  0  0  0
   10.4783    4.2580   -0.8187 C   0  0  3  0  0  0  0  0  0  0  0  0
   11.7565    4.8789   -1.3915 C   0  0  3  0  0  0  0  0  0  0  0  0
   12.7640    5.1516   -0.2766 C   0  0  3  0  0  0  0  0  0  0  0  0
   13.9494    5.9666   -0.8103 C   0  0  0  0  0  0  0  0  0  0  0  0
   12.0324    2.9688    5.8677 C   0  0  3  0  0  0  0  0  0  0  0  0
   10.6439    2.8511    5.3494 C   0  0  3  0  0  0  0  0  0  0  0  0
   10.5818    3.0339    3.8294 C   0  0  3  0  0  0  0  0  0  0  0  0
   11.2880    4.2601    3.4312 C   0  0  3  0  0  0  0  0  0  0  0  0
   12.7231    4.2312    3.9551 C   0  0  3  0  0  0  0  0  0  0  0  0
   13.6184    5.4274    3.6254 C   0  0  0  0  0  0  0  0  0  0  0  0
   13.2771    6.2940    4.1917 H   0  0  0  0  0  0  0  0  0  0  0  0
   13.5492    5.6403    2.5586 H   0  0  0  0  0  0  0  0  0  0  0  0
   15.4369   -0.9028    7.0091 C   0  0  3  0  0  0  0  0  0  0  0  0
   13.9855   -1.3326    6.9714 C   0  0  3  0  0  0  0  0  0  0  0  0
   13.2285   -0.4122    6.0088 C   0  0  3  0  0  0  0  0  0  0  0  0
   13.4202    0.8367    6.4600 C   0  0  3  0  0  0  0  0  0  0  0  0
   14.9036    1.3956    6.5704 C   0  0  3  0  0  0  0  0  0  0  0  0
   15.1212    2.7085    7.2131 C   0  0  0  0  0  0  0  0  0  0  0  0
   19.1892   -2.6269    3.6687 C   0  0  3  0  0  0  0  0  0  0  0  0
   18.3859   -3.6548    4.4958 C   0  0  3  0  0  0  0  0  0  0  0  0
   17.0513   -3.0288    4.8688 C   0  0  3  0  0  0  0  0  0  0  0  0
   17.2767   -1.7220    5.5911 C   0  0  3  0  0  0  0  0  0  0  0  0
   18.1772   -0.8006    4.7710 C   0  0  3  0  0  0  0  0  0  0  0  0
   18.6100    0.4401    5.6106 C   0  0  0  0  0  0  0  0  0  0  0  0
   19.0092   -2.3243   -1.6388 C   0  0  3  0  0  0  0  0  0  0  0  0
   18.6257   -3.6444   -0.9738 C   0  0  3  0  0  0  0  0  0  0  0  0
   18.0474   -3.4058    0.4051 C   0  0  3  0  0  0  0  0  0  0  0  0
   19.0387   -2.6280    1.2378 C   0  0  3  0  0  0  0  0  0  0  0  0
   19.3754   -1.3346    0.5155 C   0  0  3  0  0  0  0  0  0  0  0  0
   20.4388   -0.4793    1.2448 C   0  0  0  0  0  0  0  0  0  0  0  0
   16.0714    0.6363   -4.9149 C   0  0  3  0  0  0  0  0  0  0  0  0
   15.9373   -0.8894   -4.9722 C   0  0  3  0  0  0  0  0  0  0  0  0
   16.2477   -1.4834   -3.6058 C   0  0  3  0  0  0  0  0  0  0  0  0
   17.6285   -1.0413   -3.1727 C   0  0  3  0  0  0  0  0  0  0  0  0
   17.6984    0.4896   -3.1406 C   0  0  3  0  0  0  0  0  0  0  0  0
   19.0788    1.0361   -2.8207 C   0  0  0  0  0  0  0  0  0  0  0  0
   12.4440    4.2715   -3.6338 C   0  0  3  0  0  0  0  0  0  0  0  0
   11.9704    3.0918   -4.4930 C   0  0  3  0  0  0  0  0  0  0  0  0
   12.8641    1.8718   -4.2583 C   0  0  3  0  0  0  0  0  0  0  0  0
   14.3114    2.2530   -4.5013 C   0  0  3  0  0  0  0  0  0  0  0  0
   14.7344    3.4884   -3.7106 C   0  0  3  0  0  0  0  0  0  0  0  0
   16.0800    4.0432   -4.1521 C   0  0  0  0  0  0  0  0  0  0  0  0
    8.7828    4.5752    0.9067 O   0  0  0  0  0  0  0  0  0  0  0  0
    9.0870    3.7639    1.3201 H   0  0  0  0  0  0  0  0  0  0  0  0
    9.5305    4.1206   -1.8818 O   0  0  0  0  0  0  0  0  0  0  0  0
    9.3704    4.9956   -2.2429 H   0  0  0  0  0  0  0  0  0  0  0  0
   12.2991    3.8830   -2.2786 O   0  0  0  0  0  0  0  0  0  0  0  0
   12.1189    6.0461    0.6888 O   0  0  0  0  0  0  0  0  0  0  0  0
   14.9097    6.0730    0.2068 O   0  0  0  0  0  0  0  0  0  0  0  0
   15.1516    5.1826    0.4719 H   0  0  0  0  0  0  0  0  0  0  0  0
   10.1178    1.5619    5.7238 O   0  0  0  0  0  0  0  0  0  0  0  0
   10.6731    0.8926    5.3172 H   0  0  0  0  0  0  0  0  0  0  0  0
    9.1833    3.0670    3.4186 O   0  0  0  0  0  0  0  0  0  0  0  0
    8.7710    3.8177    3.8524 H   0  0  0  0  0  0  0  0  0  0  0  0
   11.3064    4.2869    1.9796 O   0  0  0  0  0  0  0  0  0  0  0  0
   12.6515    4.1568    5.4066 O   0  0  0  0  0  0  0  0  0  0  0  0
   14.8196    5.1908    3.9202 O   0  0  0  0  0  0  0  0  0  0  0  0
   14.8566    5.0066    4.8616 H   0  0  0  0  0  0  0  0  0  0  0  0
   13.8648   -2.7023    6.5648 O   0  0  0  0  0  0  0  0  0  0  0  0
   14.2522   -2.7806    5.6899 H   0  0  0  0  0  0  0  0  0  0  0  0
   11.8258   -0.7128    6.0339 O   0  0  0  0  0  0  0  0  0  0  0  0
   11.5189   -0.5908    6.9353 H   0  0  0  0  0  0  0  0  0  0  0  0
   12.7860    1.8284    5.4318 O   0  0  0  0  0  0  0  0  0  0  0  0
   15.5604    0.4277    7.4296 O   0  0  0  0  0  0  0  0  0  0  0  0
   14.4940    2.7395    8.4984 O   0  0  0  0  0  0  0  0  0  0  0  0
   13.5568    2.5773    8.3681 H   0  0  0  0  0  0  0  0  0  0  0  0
   18.1774   -4.8468    3.7427 O   0  0  0  0  0  0  0  0  0  0  0  0
   17.6939   -4.6076    2.9486 H   0  0  0  0  0  0  0  0  0  0  0  0
   16.2927   -3.9275    5.6958 O   0  0  0  0  0  0  0  0  0  0  0  0
   16.8058   -4.0942    6.4899 H   0  0  0  0  0  0  0  0  0  0  0  0
   15.9808   -1.0929    5.7140 O   0  0  0  0  0  0  0  0  0  0  0  0
   19.3788   -1.4658    4.4161 O   0  0  0  0  0  0  0  0  0  0  0  0
   19.3511    1.3305    4.8157 O   0  0  0  0  0  0  0  0  0  0  0  0
   18.7895    1.6057    4.0873 H   0  0  0  0  0  0  0  0  0  0  0  0
   17.6905   -4.3427   -1.8288 O   0  0  0  0  0  0  0  0  0  0  0  0
   16.9162   -3.7841   -1.9293 H   0  0  0  0  0  0  0  0  0  0  0  0
   17.7450   -4.6619    1.0129 O   0  0  0  0  0  0  0  0  0  0  0  0
   18.5683   -5.1477    1.1004 H   0  0  0  0  0  0  0  0  0  0  0  0
   18.4392   -2.3501    2.4868 O   0  0  0  0  0  0  0  0  0  0  0  0
   19.9138   -1.6073   -0.7921 O   0  0  0  0  0  0  0  0  0  0  0  0
   21.5795   -1.2024    1.5885 O   0  0  0  0  0  0  0  0  0  0  0  0
   21.9802   -1.5166    0.7747 H   0  0  0  0  0  0  0  0  0  0  0  0
   14.5814   -1.1880   -5.3983 O   0  0  0  0  0  0  0  0  0  0  0  0
   13.9844   -0.8395   -4.7322 H   0  0  0  0  0  0  0  0  0  0  0  0
   16.1988   -2.9213   -3.6994 O   0  0  0  0  0  0  0  0  0  0  0  0
   16.8427   -3.1914   -4.3582 H   0  0  0  0  0  0  0  0  0  0  0  0
   17.8392   -1.5650   -1.8539 O   0  0  0  0  0  0  0  0  0  0  0  0
   17.3828    0.9752   -4.4734 O   0  0  0  0  0  0  0  0  0  0  0  0
   20.0807    0.5836   -3.7218 O   0  0  0  0  0  0  0  0  0  0  0  0
   19.8112    0.8384   -4.6073 H   0  0  0  0  0  0  0  0  0  0  0  0
   10.5988    2.7726   -4.1856 O   0  0  0  0  0  0  0  0  0  0  0  0
   10.5577    2.5326   -3.2570 H   0  0  0  0  0  0  0  0  0  0  0  0
   12.4883    0.8078   -5.1538 O   0  0  0  0  0  0  0  0  0  0  0  0
   12.5917    1.1334   -6.0510 H   0  0  0  0  0  0  0  0  0  0  0  0
   15.0912    1.1528   -4.0459 O   0  0  0  0  0  0  0  0  0  0  0  0
   13.7816    4.5803   -3.9467 O   0  0  0  0  0  0  0  0  0  0  0  0
   16.0268    4.3851   -5.5380 O   0  0  0  0  0  0  0  0  0  0  0  0
   15.7993    3.5895   -6.0247 H   0  0  0  0  0  0  0  0  0  0  0  0
   10.5658    6.2011    2.0411 H   0  0  0  0  0  0  0  0  0  0  0  0
    9.5888    6.1040   -0.2124 H   0  0  0  0  0  0  0  0  0  0  0  0
   10.6989    3.2953   -0.3702 H   0  0  0  0  0  0  0  0  0  0  0  0
   11.5359    5.8075   -1.9126 H   0  0  0  0  0  0  0  0  0  0  0  0
   13.1091    4.1991    0.2263 H   0  0  0  0  0  0  0  0  0  0  0  0
   14.4203    5.4584   -1.6988 H   0  0  0  0  0  0  0  0  0  0  0  0
   13.5960    6.9542   -1.1945 H   0  0  0  0  0  0  0  0  0  0  0  0
   12.0018    2.9823    6.9700 H   0  0  0  0  0  0  0  0  0  0  0  0
   10.0201    3.6083    5.8062 H   0  0  0  0  0  0  0  0  0  0  0  0
   11.0711    2.1662    3.3320 H   0  0  0  0  0  0  0  0  0  0  0  0
   10.7542    5.1423    3.8140 H   0  0  0  0  0  0  0  0  0  0  0  0
   13.2298    3.3418    3.5709 H   0  0  0  0  0  0  0  0  0  0  0  0
   15.9950   -1.5640    7.7090 H   0  0  0  0  0  0  0  0  0  0  0  0
   13.5510   -1.2231    7.9633 H   0  0  0  0  0  0  0  0  0  0  0  0
   13.6290   -0.5372    4.9959 H   0  0  0  0  0  0  0  0  0  0  0  0
   12.9241    1.1508    7.4310 H   0  0  0  0  0  0  0  0  0  0  0  0
   15.3627    1.3677    5.5757 H   0  0  0  0  0  0  0  0  0  0  0  0
   14.7421    3.5174    6.5592 H   0  0  0  0  0  0  0  0  0  0  0  0
   16.2163    2.8945    7.3304 H   0  0  0  0  0  0  0  0  0  0  0  0
   20.1584   -3.0381    3.3977 H   0  0  0  0  0  0  0  0  0  0  0  0
   18.9348   -3.9016    5.4053 H   0  0  0  0  0  0  0  0  0  0  0  0
   16.4897   -2.8232    3.9593 H   0  0  0  0  0  0  0  0  0  0  0  0
   17.7220   -1.9203    6.5662 H   0  0  0  0  0  0  0  0  0  0  0  0
   17.6517   -0.4421    3.8824 H   0  0  0  0  0  0  0  0  0  0  0  0
   17.7264    0.9380    6.0311 H   0  0  0  0  0  0  0  0  0  0  0  0
   19.2230    0.0919    6.4726 H   0  0  0  0  0  0  0  0  0  0  0  0
   19.5287   -2.5370   -2.5888 H   0  0  0  0  0  0  0  0  0  0  0  0
   19.5128   -4.2828   -0.8578 H   0  0  0  0  0  0  0  0  0  0  0  0
   17.1300   -2.8263    0.2906 H   0  0  0  0  0  0  0  0  0  0  0  0
   19.9481   -3.2106    1.3719 H   0  0  0  0  0  0  0  0  0  0  0  0
   18.4702   -0.7572    0.3814 H   0  0  0  0  0  0  0  0  0  0  0  0
   20.6854    0.3719    0.6385 H   0  0  0  0  0  0  0  0  0  0  0  0
   19.9614   -0.1074    2.1752 H   0  0  0  0  0  0  0  0  0  0  0  0
   15.9085    1.0454   -5.9194 H   0  0  0  0  0  0  0  0  0  0  0  0
   16.6500   -1.2778   -5.7182 H   0  0  0  0  0  0  0  0  0  0  0  0
   15.5354   -1.1229   -2.8710 H   0  0  0  0  0  0  0  0  0  0  0  0
   18.3783   -1.4503   -3.8797 H   0  0  0  0  0  0  0  0  0  0  0  0
   16.9483    0.8605   -2.4225 H   0  0  0  0  0  0  0  0  0  0  0  0
   19.0474    2.1352   -2.8584 H   0  0  0  0  0  0  0  0  0  0  0  0
   19.3559    0.7603   -1.7938 H   0  0  0  0  0  0  0  0  0  0  0  0
   11.7981    5.1474   -3.8238 H   0  0  0  0  0  0  0  0  0  0  0  0
   12.0374    3.3645   -5.5338 H   0  0  0  0  0  0  0  0  0  0  0  0
   12.7580    1.5340   -3.2105 H   0  0  0  0  0  0  0  0  0  0  0  0
   14.4732    2.4214   -5.5757 H   0  0  0  0  0  0  0  0  0  0  0  0
   14.7600    3.2436   -2.6363 H   0  0  0  0  0  0  0  0  0  0  0  0
   16.8696    3.2973   -3.9956 H   0  0  0  0  0  0  0  0  0  0  0  0
   16.3390    4.9326   -3.5583 H   0  0  0  0  0  0  0  0  0  0  0  0
  1  2  1  0  0  0  0
  1 50  1  0  0  0  0
  1 57  1  0  0  0  0
  1101  1  0  0  0  0
  2  3  1  0  0  0  0
  2 45  1  0  0  0  0
  2102  1  0  0  0  0
  3  4  1  0  0  0  0
  3 47  1  0  0  0  0
  3103  1  0  0  0  0
  4  5  1  0  0  0  0
  4 49  1  0  0  0  0
  4104  1  0  0  0  0
  5  6  1  0  0  0  0
  5 50  1  0  0  0  0
  5105  1  0  0  0  0
  6 51  1  0  0  0  0
  6106  1  0  0  0  0
  6107  1  0  0  0  0
  7  8  1  0  0  0  0
  7 58  1  0  0  0  0
  7 65  1  0  0  0  0
  7108  1  0  0  0  0
  8  9  1  0  0  0  0
  8 53  1  0  0  0  0
  8109  1  0  0  0  0
  9 10  1  0  0  0  0
  9 55  1  0  0  0  0
  9110  1  0  0  0  0
 10 11  1  0  0  0  0
 10 57  1  0  0  0  0
 10111  1  0  0  0  0
 11 12  1  0  0  0  0
 11 58  1  0  0  0  0
 11112  1  0  0  0  0
 12 13  1  0  0  0  0
 12 14  1  0  0  0  0
 12 59  1  0  0  0  0
 15 16  1  0  0  0  0
 15 66  1  0  0  0  0
 15 73  1  0  0  0  0
 15113  1  0  0  0  0
 16 17  1  0  0  0  0
 16 61  1  0  0  0  0
 16114  1  0  0  0  0
 17 18  1  0  0  0  0
 17 63  1  0  0  0  0
 17115  1  0  0  0  0
 18 19  1  0  0  0  0
 18 65  1  0  0  0  0
 18116  1  0  0  0  0
 19 20  1  0  0  0  0
 19 66  1  0  0  0  0
 19117  1  0  0  0  0
 20 67  1  0  0  0  0
 20118  1  0  0  0  0
 20119  1  0  0  0  0
 21 22  1  0  0  0  0
 21 74  1  0  0  0  0
 21 81  1  0  0  0  0
 21120  1  0  0  0  0
 22 23  1  0  0  0  0
 22 69  1  0  0  0  0
 22121  1  0  0  0  0
 23 24  1  0  0  0  0
 23 71  1  0  0  0  0
 23122  1  0  0  0  0
 24 25  1  0  0  0  0
 24 73  1  0  0  0  0
 24123  1  0  0  0  0
 25 26  1  0  0  0  0
 25 74  1  0  0  0  0
 25124  1  0  0  0  0
 26 75  1  0  0  0  0
 26125  1  0  0  0  0
 26126  1  0  0  0  0
 27 28  1  0  0  0  0
 27 82  1  0  0  0  0
 27 89  1  0  0  0  0
 27127  1  0  0  0  0
 28 29  1  0  0  0  0
 28 77  1  0  0  0  0
 28128  1  0  0  0  0
 29 30  1  0  0  0  0
 29 79  1  0  0  0  0
 29129  1  0  0  0  0
 30 31  1  0  0  0  0
 30 81  1  0  0  0  0
 30130  1  0  0  0  0
 31 32  1  0  0  0  0
 31 82  1  0  0  0  0
 31131  1  0  0  0  0
 32 83  1  0  0  0  0
 32132  1  0  0  0  0
 32133  1  0  0  0  0
 33 34  1  0  0  0  0
 33 90  1  0  0  0  0
 33 97  1  0  0  0  0
 33134  1  0  0  0  0
 34 35  1  0  0  0  0
 34 85  1  0  0  0  0
 34135  1  0  0  0  0
 35 36  1  0  0  0  0
 35 87  1  0  0  0  0
 35136  1  0  0  0  0
 36 37  1  0  0  0  0
 36 89  1  0  0  0  0
 36137  1  0  0  0  0
 37 38  1  0  0  0  0
 37 90  1  0  0  0  0
 37138  1  0  0  0  0
 38 91  1  0  0  0  0
 38139  1  0  0  0  0
 38140  1  0  0  0  0
 39 40  1  0  0  0  0
 39 49  1  0  0  0  0
 39 98  1  0  0  0  0
 39141  1  0  0  0  0
 40 41  1  0  0  0  0
 40 93  1  0  0  0  0
 40142  1  0  0  0  0
 41 42  1  0  0  0  0
 41 95  1  0  0  0  0
 41143  1  0  0  0  0
 42 43  1  0  0  0  0
 42 97  1  0  0  0  0
 42144  1  0  0  0  0
 43 44  1  0  0  0  0
 43 98  1  0  0  0  0
 43145  1  0  0  0  0
 44 99  1  0  0  0  0
 44146  1  0  0  0  0
 44147  1  0  0  0  0
 45 46  1  0  0  0  0
 47 48  1  0  0  0  0
 51 52  1  0  0  0  0
 53 54  1  0  0  0  0
 55 56  1  0  0  0  0
 59 60  1  0  0  0  0
 61 62  1  0  0  0  0
 63 64  1  0  0  0  0
 67 68  1  0  0  0  0
 69 70  1  0  0  0  0
 71 72  1  0  0  0  0
 75 76  1  0  0  0  0
 77 78  1  0  0  0  0
 79 80  1  0  0  0  0
 83 84  1  0  0  0  0
 85 86  1  0  0  0  0
 87 88  1  0  0  0  0
 91 92  1  0  0  0  0
 93 94  1  0  0  0  0
 95 96  1  0  0  0  0
 99100  1  0  0  0  0
M  END
$$$$
